@<TRIPOS>MOLECULE
Ligand
   76    78     1     0     0
SMALL
bcc


@<TRIPOS>ATOM
      1 H22         24.7610     3.8670   -26.2160 HA         1 UNK       0.125500
      2 H10         25.5920   -10.2050   -27.5310 HA         1 UNK       0.125500
      3 H15         26.9500   -13.9640   -25.1560 H1         1 UNK      -0.008800
      4 H16         27.1280   -15.4470   -24.2060 H1         1 UNK      -0.008800
      5 H18         23.9100     1.8040   -25.7100 H1         1 UNK       0.028200
      6 H17         22.5290     0.8810   -25.0740 H1         1 UNK       0.028200
      7 H01         23.5910    -5.3230   -24.9360 HA         1 UNK       0.125750
      8 H19         24.0540     2.4360   -23.0470 H1         1 UNK       0.032450
      9 H28         30.1460     4.4310   -29.3040 H1         1 UNK      -0.008800
     10 H20         22.2960     2.2430   -23.2490 H1         1 UNK       0.032450
     11 H23         27.6730     7.3420   -24.1300 HA         1 UNK       0.127000
     12 H21         25.6630     6.5070   -22.9110 HA         1 UNK       0.125500
     13 H05         27.1520    -7.1140   -27.1420 H1         1 UNK       0.028200
     14 H24         26.7710     4.7000   -27.4320 HA         1 UNK       0.127000
     15 H08         25.9870    -6.4960   -29.7080 H1         1 UNK       0.032450
     16 H13         27.1070   -16.0110   -26.6030 H1         1 UNK       0.028700
     17 H14         25.6340   -16.6420   -25.8300 H1         1 UNK       0.028700
     18 H27         31.6970     5.2790   -29.2090 H1         1 UNK      -0.008800
     19 H04         26.4440    -2.9160   -27.1160 HA         1 UNK       0.125750
     20 H03         25.6800    -0.8900   -25.8790 HA         1 UNK       0.125750
     21 H25         30.6190     6.8870   -27.5580 H1         1 UNK       0.028700
     22 H02         22.8270    -3.2990   -23.7010 HA         1 UNK       0.125750
     23 H07         27.6150    -7.1640   -29.9690 H1         1 UNK       0.032450
     24 H26         29.9310     6.9580   -29.1990 H1         1 UNK       0.028700
     25 H06         28.3170    -6.1490   -28.0770 H1         1 UNK       0.028200
     26 H09         27.4460   -11.5480   -31.1990 HA         1 UNK       0.125500
     27 H12         25.2580   -12.5770   -26.8310 HA         1 UNK       0.127000
     28 H11         27.1120   -13.9180   -30.5000 HA         1 UNK       0.127000
     29 C1          25.0680    -4.2520   -26.1070 CA         1 UNK      -0.149600
     30 C2          24.0480    -4.3550   -25.1430 CA         1 UNK      -0.060500
     31 C3          23.6170    -3.2150   -24.4470 CA         1 UNK      -0.060500
     32 C4          24.2040    -1.9630   -24.7110 CA         1 UNK      -0.149600
     33 C5          25.2230    -1.8580   -25.6730 CA         1 UNK      -0.060500
     34 C6          25.6540    -3.0000   -26.3700 CA         1 UNK      -0.060500
     35 C7          25.5260    -5.4640   -26.8460 C          1 UNK       0.720200
     36 C20         23.7470    -0.7490   -23.9710 C          1 UNK       0.720200
     37 O33         25.0320    -6.5460   -26.6320 O          1 UNK      -0.541500
     38 O40         22.8710    -0.8210   -23.1390 O          1 UNK      -0.541500
     39 O34         26.4940    -5.2550   -27.7340 OS         1 UNK      -0.405400
     40 C8          27.2670    -6.4220   -27.9760 CT         1 UNK       0.193400
     41 C9          26.7860    -7.0910   -29.2650 CT         1 UNK       0.173900
     42 O35         26.3000    -8.3940   -28.9680 OS         1 UNK      -0.400400
     43 C10         26.7400    -9.3050   -29.8310 C          1 UNK       0.723700
     44 C11         26.5410   -10.7250   -29.4120 CA         1 UNK      -0.153100
     45 C12         26.9680   -11.7720   -30.2450 CA         1 UNK      -0.062500
     46 C16         25.9240   -11.0160   -28.1790 CA         1 UNK      -0.062500
     47 C13         26.7800   -13.1080   -29.8510 CA         1 UNK      -0.062000
     48 C14         26.1640   -13.4020   -28.6200 CA         1 UNK      -0.144600
     49 C15         25.7360   -12.3530   -27.7850 CA         1 UNK      -0.062000
     50 C17         25.9640   -14.8210   -28.2000 C          1 UNK       0.723200
     51 O37         26.3250   -15.7330   -28.9060 O          1 UNK      -0.554000
     52 O36         27.2670    -9.0380   -30.8840 O          1 UNK      -0.546500
     53 O38         25.3730   -14.9840   -27.0210 OS         1 UNK      -0.391900
     54 C18         26.1690   -15.7380   -26.1190 CT         1 UNK       0.192900
     55 C19         26.4640   -14.8980   -24.8740 CT         1 UNK       0.201900
     56 O39         25.2420   -14.6340   -24.2220 OH         1 UNK      -0.577300
     57 H75         25.4450   -14.1020   -23.4370 HO         1 UNK       0.389000
     58 O41         24.3660     0.3810   -24.2950 OS         1 UNK      -0.405400
     59 C21         23.4760     1.3550   -24.8170 CT         1 UNK       0.193400
     60 C22         23.2350     2.4400   -23.7660 CT         1 UNK       0.173900
     61 O42         23.1700     3.7100   -24.4000 OS         1 UNK      -0.400400
     62 C23         23.8780     4.6340   -23.7560 C          1 UNK       0.723700
     63 C24         25.0810     5.1330   -24.4850 CA         1 UNK      -0.153100
     64 C25         25.9040     6.1130   -23.8980 CA         1 UNK      -0.062500
     65 C29         25.3970     4.6260   -25.7600 CA         1 UNK      -0.062500
     66 C26         27.0370     6.5830   -24.5850 CA         1 UNK      -0.062000
     67 C27         27.3520     6.0750   -25.8590 CA         1 UNK      -0.144600
     68 C28         26.5290     5.0950   -26.4450 CA         1 UNK      -0.062000
     69 C30         28.5560     6.5750   -26.5870 C          1 UNK       0.723200
     70 O44         29.2740     7.4160   -26.0980 O          1 UNK      -0.554000
     71 O43         23.5930     5.0590   -22.6610 O          1 UNK      -0.546500
     72 O45         28.7630     6.0310   -27.7820 OS         1 UNK      -0.391900
     73 C31         30.0440     6.3420   -28.3070 CT         1 UNK       0.192900
     74 C32         30.7780     5.0510   -28.6680 CT         1 UNK       0.201900
     75 O46         31.0740     4.3640   -27.4730 OH         1 UNK      -0.577300
     76 H76         31.5390     3.5480   -27.7200 HO         1 UNK       0.389000
@<TRIPOS>BOND
     1    29    30 1   
     2    29    34 2   
     3    29    35 1   
     4     7    30 1   
     5    30    31 2   
     6    22    31 1   
     7    31    32 1   
     8    32    33 2   
     9    32    36 1   
    10    20    33 1   
    11    33    34 1   
    12    19    34 1   
    13    35    37 2   
    14    35    39 1   
    15    36    38 2   
    16    36    58 1   
    17    39    40 1   
    18    13    40 1   
    19    25    40 1   
    20    40    41 1   
    21    15    41 1   
    22    23    41 1   
    23    41    42 1   
    24    42    43 1   
    25    43    44 1   
    26    43    52 2   
    27    44    45 1   
    28    44    46 2   
    29    26    45 1   
    30    45    47 2   
    31     2    46 1   
    32    46    49 1   
    33    28    47 1   
    34    47    48 1   
    35    48    49 2   
    36    48    50 1   
    37    27    49 1   
    38    50    51 2   
    39    50    53 1   
    40    53    54 1   
    41    16    54 1   
    42    17    54 1   
    43    54    55 1   
    44     3    55 1   
    45     4    55 1   
    46    55    56 1   
    47    56    57 1   
    48    58    59 1   
    49     5    59 1   
    50     6    59 1   
    51    59    60 1   
    52     8    60 1   
    53    10    60 1   
    54    60    61 1   
    55    61    62 1   
    56    62    63 1   
    57    62    71 2   
    58    63    64 1   
    59    63    65 2   
    60    12    64 1   
    61    64    66 2   
    62     1    65 1   
    63    65    68 1   
    64    11    66 1   
    65    66    67 1   
    66    67    68 2   
    67    67    69 1   
    68    14    68 1   
    69    69    70 2   
    70    69    72 1   
    71    72    73 1   
    72    21    73 1   
    73    24    73 1   
    74    73    74 1   
    75     9    74 1   
    76    18    74 1   
    77    74    75 1   
    78    75    76 1   
@<TRIPOS>SUBSTRUCTURE
     1 UNK         1 TEMP              0 ****  ****    0 ROOT
