# created with PyMOL 3.0.3
@<TRIPOS>MOLECULE
Ligand
76 78 1                 
SMALL
USER_CHARGES
@<TRIPOS>ATOM
1	 H22	24.761	3.867	-26.216	 H	1	UNK0	0.000	
2	 H10	25.592	-10.205	-27.531	 H	1	UNK0	0.000	
3	 H15	26.950	-13.964	-25.156	 H	1	UNK0	0.000	
4	 H16	27.128	-15.447	-24.206	 H	1	UNK0	0.000	
5	 H18	23.910	1.804	-25.710	 H	1	UNK0	0.000	
6	 H17	22.529	0.881	-25.074	 H	1	UNK0	0.000	
7	 H01	23.591	-5.323	-24.936	 H	1	UNK0	0.000	
8	 H19	24.054	2.436	-23.047	 H	1	UNK0	0.000	
9	 H28	30.146	4.431	-29.304	 H	1	UNK0	0.000	
10	 H20	22.296	2.243	-23.249	 H	1	UNK0	0.000	
11	 H23	27.673	7.342	-24.130	 H	1	UNK0	0.000	
12	 H21	25.663	6.507	-22.911	 H	1	UNK0	0.000	
13	 H05	27.152	-7.114	-27.142	 H	1	UNK0	0.000	
14	 H24	26.771	4.700	-27.432	 H	1	UNK0	0.000	
15	 H08	25.987	-6.496	-29.708	 H	1	UNK0	0.000	
16	 H13	27.107	-16.011	-26.603	 H	1	UNK0	0.000	
17	 H14	25.634	-16.642	-25.830	 H	1	UNK0	0.000	
18	 H27	31.697	5.279	-29.209	 H	1	UNK0	0.000	
19	 H04	26.444	-2.916	-27.116	 H	1	UNK0	0.000	
20	 H03	25.680	-0.890	-25.879	 H	1	UNK0	0.000	
21	 H25	30.619	6.887	-27.558	 H	1	UNK0	0.000	
22	 H02	22.827	-3.299	-23.701	 H	1	UNK0	0.000	
23	 H07	27.615	-7.164	-29.969	 H	1	UNK0	0.000	
24	 H26	29.931	6.958	-29.199	 H	1	UNK0	0.000	
25	 H06	28.317	-6.149	-28.077	 H	1	UNK0	0.000	
26	 H09	27.446	-11.548	-31.199	 H	1	UNK0	0.000	
27	 H12	25.258	-12.577	-26.831	 H	1	UNK0	0.000	
28	 H11	27.112	-13.918	-30.500	 H	1	UNK0	0.000	
29	  C1	25.068	-4.252	-26.107	C.2	1	UNK0	0.039	
30	  C2	24.048	-4.355	-25.143	C.2	1	UNK0	0.018	
31	  C3	23.617	-3.215	-24.447	C.2	1	UNK0	0.018	
32	  C4	24.204	-1.963	-24.711	C.2	1	UNK0	0.039	
33	  C5	25.223	-1.858	-25.673	C.2	1	UNK0	0.018	
34	  C6	25.654	-3.000	-26.370	C.2	1	UNK0	0.018	
35	  C7	25.526	-5.464	-26.846	C.2	1	UNK0	0.293	
36	 C20	23.747	-0.749	-23.971	C.2	1	UNK0	0.293	
37	 O33	25.032	-6.546	-26.632	O.co2	1	UNK0	-0.259	
38	 O40	22.871	-0.821	-23.139	O.co2	1	UNK0	-0.259	
39	 O34	26.494	-5.255	-27.734	O.3	1	UNK0	-0.315	
40	  C8	27.267	-6.422	-27.976	C.3	1	UNK0	0.206	
41	  C9	26.786	-7.091	-29.265	C.3	1	UNK0	0.206	
42	 O35	26.300	-8.394	-28.968	O.3	1	UNK0	-0.315	
43	 C10	26.740	-9.305	-29.831	C.2	1	UNK0	0.293	
44	 C11	26.541	-10.725	-29.412	C.2	1	UNK0	0.039	
45	 C12	26.968	-11.772	-30.245	C.2	1	UNK0	0.018	
46	 C16	25.924	-11.016	-28.179	C.2	1	UNK0	0.018	
47	 C13	26.780	-13.108	-29.851	C.2	1	UNK0	0.018	
48	 C14	26.164	-13.402	-28.620	C.2	1	UNK0	0.039	
49	 C15	25.736	-12.353	-27.785	C.2	1	UNK0	0.018	
50	 C17	25.964	-14.821	-28.200	C.2	1	UNK0	0.293	
51	 O37	26.325	-15.733	-28.906	O.co2	1	UNK0	-0.259	
52	 O36	27.267	-9.038	-30.884	O.co2	1	UNK0	-0.259	
53	 O38	25.373	-14.984	-27.021	O.3	1	UNK0	-0.315	
54	 C18	26.169	-15.738	-26.119	C.3	1	UNK0	0.205	
55	 C19	26.464	-14.898	-24.874	C.3	1	UNK0	0.191	
56	 O39	25.242	-14.634	-24.222	O.3	1	UNK0	-0.399	
57	 H75	25.445	-14.102	-23.437	 H	1	UNK0	0.209	
58	 O41	24.366	0.381	-24.295	O.3	1	UNK0	-0.315	
59	 C21	23.476	1.355	-24.817	C.3	1	UNK0	0.206	
60	 C22	23.235	2.440	-23.766	C.3	1	UNK0	0.206	
61	 O42	23.170	3.710	-24.400	O.3	1	UNK0	-0.315	
62	 C23	23.878	4.634	-23.756	C.2	1	UNK0	0.293	
63	 C24	25.081	5.133	-24.485	C.2	1	UNK0	0.039	
64	 C25	25.904	6.113	-23.898	C.2	1	UNK0	0.018	
65	 C29	25.397	4.626	-25.760	C.2	1	UNK0	0.018	
66	 C26	27.037	6.583	-24.585	C.2	1	UNK0	0.018	
67	 C27	27.352	6.075	-25.859	C.2	1	UNK0	0.039	
68	 C28	26.529	5.095	-26.445	C.2	1	UNK0	0.018	
69	 C30	28.556	6.575	-26.587	C.2	1	UNK0	0.293	
70	 O44	29.274	7.416	-26.098	O.co2	1	UNK0	-0.259	
71	 O43	23.593	5.059	-22.661	O.co2	1	UNK0	-0.259	
72	 O45	28.763	6.031	-27.782	O.3	1	UNK0	-0.315	
73	 C31	30.044	6.342	-28.307	C.3	1	UNK0	0.205	
74	 C32	30.778	5.051	-28.668	C.3	1	UNK0	0.191	
75	 O46	31.074	4.364	-27.473	O.3	1	UNK0	-0.399	
76	 H76	31.539	3.548	-27.720	 H	1	UNK0	0.209	
@<TRIPOS>BOND
1 29 30 ar
2 29 34 ar
3 29 35 1
4 7 30 1
5 30 31 ar
6 22 31 1
7 31 32 ar
8 32 33 ar
9 32 36 1
10 20 33 1
11 33 34 ar
12 19 34 1
13 35 37 2
14 35 39 1
15 36 38 2
16 36 58 1
17 39 40 1
18 13 40 1
19 25 40 1
20 40 41 1
21 15 41 1
22 23 41 1
23 41 42 1
24 42 43 1
25 43 44 1
26 43 52 2
27 44 45 ar
28 44 46 ar
29 26 45 1
30 45 47 ar
31 2 46 1
32 46 49 ar
33 28 47 1
34 47 48 ar
35 48 49 ar
36 48 50 1
37 27 49 1
38 50 51 2
39 50 53 1
40 53 54 1
41 16 54 1
42 17 54 1
43 54 55 1
44 3 55 1
45 4 55 1
46 55 56 1
47 56 57 1
48 58 59 1
49 5 59 1
50 6 59 1
51 59 60 1
52 8 60 1
53 10 60 1
54 60 61 1
55 61 62 1
56 62 63 1
57 62 71 2
58 63 64 ar
59 63 65 ar
60 12 64 1
61 64 66 ar
62 1 65 1
63 65 68 ar
64 11 66 1
65 66 67 ar
66 67 68 ar
67 67 69 1
68 14 68 1
69 69 70 2
70 69 72 1
71 72 73 1
72 21 73 1
73 24 73 1
74 73 74 1
75 9 74 1
76 18 74 1
77 74 75 1
78 75 76 1
@<TRIPOS>SUBSTRUCTURE
1	UNK0	1	GROUP	1 ****	UNK
