MODEL 0
REMARK DSDP RESULT:      -4.921856
REMARK  11 active torsions:
REMARK  status: ('A' for Active; 'I' for Inactive)
REMARK    1  A    between atoms: C_3  and  O_5 
REMARK    2  A    between atoms: O_4  and  C_14 
REMARK    3  A    between atoms: O_4  and  C_15 
REMARK    4  A    between atoms: O_5  and  C_16 
REMARK       I    between atoms: C_8  and  C_15 
REMARK       I    between atoms: C_11  and  C_17 
REMARK    5  A    between atoms: C_14  and  C_16 
REMARK    6  A    between atoms: C_17  and  O_19 
REMARK    7  A    between atoms: O_18  and  C_28 
REMARK    8  A    between atoms: O_18  and  C_29 
REMARK    9  A    between atoms: O_19  and  C_30 
REMARK       I    between atoms: C_22  and  C_29 
REMARK       I    between atoms: C_25  and  C_31 
REMARK   10  A    between atoms: C_28  and  C_30 
REMARK   11  A    between atoms: C_31  and  O_32 
ROOT
HETATM    1  O           0      14.304   5.514 -56.659  0.00  0.00    -0.266 OA
HETATM    2  C           0      16.533   5.859 -57.527  0.00  0.00     0.126 C 
HETATM    3  C           0      15.288   5.104 -57.221  0.00  0.00     0.254 C 
ENDROOT
BRANCH   3   4
HETATM    4  O           0      15.189   3.769 -57.614  0.00  0.00    -0.320 OA
BRANCH   4   5
HETATM    5  C           0      13.925   3.087 -57.721  0.00  0.00     0.205 C 
BRANCH   5   6
HETATM    6  C           0      13.568   2.432 -56.391  0.00  0.00     0.206 C 
BRANCH   6   7
HETATM    7  O           0      12.167   2.030 -56.378  0.00  0.00    -0.315 OA
BRANCH   7   8
HETATM    8  C           0      11.737   1.160 -57.364  0.00  0.00     0.293 C 
HETATM    9  O           0      12.357   0.158 -57.632  0.00  0.00    -0.259 OA
HETATM   10  C           0      10.465   1.656 -57.951  0.00  0.00     0.039 A 
HETATM   11  C           0      10.023   2.966 -57.720  0.00  0.00     0.018 A 
HETATM   12  C           0       9.718   0.777 -58.750  0.00  0.00     0.018 A 
HETATM   13  C           0       8.823   3.400 -58.287  0.00  0.00     0.018 A 
HETATM   14  C           0       8.072   2.518 -59.079  0.00  0.00     0.039 A 
HETATM   15  C           0       8.517   1.210 -59.316  0.00  0.00     0.018 A 
HETATM   16  C           0       6.801   3.014 -59.674  0.00  0.00     0.293 C 
HETATM   17  O           0       6.401   4.153 -59.746  0.00  0.00    -0.259 OA
BRANCH  16  18
HETATM   18  O           0       6.072   1.954 -60.166  0.00  0.00    -0.315 OA
BRANCH  18  19
HETATM   19  C           0       4.699   1.796 -59.713  0.00  0.00     0.206 C 
BRANCH  19  20
HETATM   20  C           0       4.551   0.611 -58.766  0.00  0.00     0.206 C 
BRANCH  20  21
HETATM   21  O           0       4.924   0.959 -57.405  0.00  0.00    -0.315 OA
BRANCH  21  22
HETATM   22  C           0       5.907   0.212 -56.789  0.00  0.00     0.293 C 
HETATM   23  O           0       5.978  -0.986 -56.938  0.00  0.00    -0.259 OA
HETATM   24  C           0       6.784   1.098 -55.977  0.00  0.00     0.039 A 
HETATM   25  C           0       6.458   2.446 -55.768  0.00  0.00     0.018 A 
HETATM   26  C           0       7.945   0.545 -55.417  0.00  0.00     0.018 A 
HETATM   27  C           0       7.299   3.246 -54.994  0.00  0.00     0.018 A 
HETATM   28  C           0       8.461   2.694 -54.433  0.00  0.00     0.039 A 
HETATM   29  C           0       8.786   1.347 -54.642  0.00  0.00     0.018 A 
HETATM   30  C           0       9.330   3.582 -53.612  0.00  0.00     0.292 C 
HETATM   31  O           0       9.161   4.747 -53.339  0.00  0.00    -0.259 OA
BRANCH  30  32
HETATM   32  O           0      10.430   2.884 -53.164  0.00  0.00    -0.323 OA
HETATM   33  C           0      11.516   3.670 -52.601  0.00  0.00     0.213 C 
ENDBRANCH  30  32
ENDBRANCH  21  22
ENDBRANCH  20  21
ENDBRANCH  19  20
ENDBRANCH  18  19
ENDBRANCH  16  18
ENDBRANCH   7   8
ENDBRANCH   6   7
ENDBRANCH   5   6
ENDBRANCH   4   5
ENDBRANCH   3   4
TORSDOF 15
ENDMDL
MODEL 1
REMARK DSDP RESULT:      -4.847892
REMARK  11 active torsions:
REMARK  status: ('A' for Active; 'I' for Inactive)
REMARK    1  A    between atoms: C_3  and  O_5 
REMARK    2  A    between atoms: O_4  and  C_14 
REMARK    3  A    between atoms: O_4  and  C_15 
REMARK    4  A    between atoms: O_5  and  C_16 
REMARK       I    between atoms: C_8  and  C_15 
REMARK       I    between atoms: C_11  and  C_17 
REMARK    5  A    between atoms: C_14  and  C_16 
REMARK    6  A    between atoms: C_17  and  O_19 
REMARK    7  A    between atoms: O_18  and  C_28 
REMARK    8  A    between atoms: O_18  and  C_29 
REMARK    9  A    between atoms: O_19  and  C_30 
REMARK       I    between atoms: C_22  and  C_29 
REMARK       I    between atoms: C_25  and  C_31 
REMARK   10  A    between atoms: C_28  and  C_30 
REMARK   11  A    between atoms: C_31  and  O_32 
ROOT
HETATM    1  O           0       6.746   1.239 -49.584  0.00  0.00    -0.266 OA
HETATM    2  C           0       5.660  -0.866 -50.062  0.00  0.00     0.126 C 
HETATM    3  C           0       6.200   0.489 -50.353  0.00  0.00     0.254 C 
ENDROOT
BRANCH   3   4
HETATM    4  O           0       6.096   0.998 -51.647  0.00  0.00    -0.320 OA
BRANCH   4   5
HETATM    5  C           0       5.904   0.151 -52.797  0.00  0.00     0.205 C 
BRANCH   5   6
HETATM    6  C           0       7.250  -0.339 -53.319  0.00  0.00     0.206 C 
BRANCH   6   7
HETATM    7  O           0       8.116   0.789 -53.640  0.00  0.00    -0.315 OA
BRANCH   7   8
HETATM    8  C           0       9.063   0.613 -54.633  0.00  0.00     0.293 C 
HETATM    9  O           0       8.991  -0.307 -55.414  0.00  0.00    -0.259 OA
HETATM   10  C           0      10.076   1.697 -54.558  0.00  0.00     0.039 A 
HETATM   11  C           0      10.169   2.527 -53.431  0.00  0.00     0.018 A 
HETATM   12  C           0      10.945   1.867 -55.648  0.00  0.00     0.018 A 
HETATM   13  C           0      11.132   3.536 -53.395  0.00  0.00     0.018 A 
HETATM   14  C           0      11.995   3.711 -54.487  0.00  0.00     0.039 A 
HETATM   15  C           0      11.907   2.878 -55.611  0.00  0.00     0.018 A 
HETATM   16  C           0      13.015   4.792 -54.413  0.00  0.00     0.293 C 
HETATM   17  O           0      13.358   5.436 -53.448  0.00  0.00    -0.259 OA
BRANCH  16  18
HETATM   18  O           0      13.565   5.000 -55.659  0.00  0.00    -0.315 OA
BRANCH  18  19
HETATM   19  C           0      14.457   6.136 -55.835  0.00  0.00     0.206 C 
BRANCH  19  20
HETATM   20  C           0      15.921   5.715 -55.790  0.00  0.00     0.206 C 
BRANCH  20  21
HETATM   21  O           0      16.666   6.231 -56.926  0.00  0.00    -0.315 OA
BRANCH  21  22
HETATM   22  C           0      17.911   6.777 -56.694  0.00  0.00     0.293 C 
HETATM   23  O           0      18.758   6.180 -56.072  0.00  0.00    -0.259 OA
HETATM   24  C           0      17.995   8.130 -57.309  0.00  0.00     0.039 A 
HETATM   25  C           0      16.859   8.753 -57.846  0.00  0.00     0.018 A 
HETATM   26  C           0      19.242   8.771 -57.329  0.00  0.00     0.018 A 
HETATM   27  C           0      16.972  10.025 -58.408  0.00  0.00     0.018 A 
HETATM   28  C           0      18.220  10.668 -58.428  0.00  0.00     0.039 A 
HETATM   29  C           0      19.354  10.044 -57.891  0.00  0.00     0.018 A 
HETATM   30  C           0      18.297  12.026 -59.035  0.00  0.00     0.292 C 
HETATM   31  O           0      17.401  12.681 -59.515  0.00  0.00    -0.259 OA
BRANCH  30  32
HETATM   32  O           0      19.593  12.491 -58.990  0.00  0.00    -0.323 OA
HETATM   33  C           0      19.910  13.432 -57.929  0.00  0.00     0.213 C 
ENDBRANCH  30  32
ENDBRANCH  21  22
ENDBRANCH  20  21
ENDBRANCH  19  20
ENDBRANCH  18  19
ENDBRANCH  16  18
ENDBRANCH   7   8
ENDBRANCH   6   7
ENDBRANCH   5   6
ENDBRANCH   4   5
ENDBRANCH   3   4
TORSDOF 15
ENDMDL
MODEL 2
REMARK DSDP RESULT:      -4.482782
REMARK  11 active torsions:
REMARK  status: ('A' for Active; 'I' for Inactive)
REMARK    1  A    between atoms: C_3  and  O_5 
REMARK    2  A    between atoms: O_4  and  C_14 
REMARK    3  A    between atoms: O_4  and  C_15 
REMARK    4  A    between atoms: O_5  and  C_16 
REMARK       I    between atoms: C_8  and  C_15 
REMARK       I    between atoms: C_11  and  C_17 
REMARK    5  A    between atoms: C_14  and  C_16 
REMARK    6  A    between atoms: C_17  and  O_19 
REMARK    7  A    between atoms: O_18  and  C_28 
REMARK    8  A    between atoms: O_18  and  C_29 
REMARK    9  A    between atoms: O_19  and  C_30 
REMARK       I    between atoms: C_22  and  C_29 
REMARK       I    between atoms: C_25  and  C_31 
REMARK   10  A    between atoms: C_28  and  C_30 
REMARK   11  A    between atoms: C_31  and  O_32 
ROOT
HETATM    1  O           0      12.064   2.264 -56.191  0.00  0.00    -0.266 OA
HETATM    2  C           0      12.946   4.178 -55.008  0.00  0.00     0.126 C 
HETATM    3  C           0      12.965   3.027 -55.951  0.00  0.00     0.254 C 
ENDROOT
BRANCH   3   4
HETATM    4  O           0      14.128   2.760 -56.672  0.00  0.00    -0.320 OA
BRANCH   4   5
HETATM    5  C           0      14.240   3.024 -58.084  0.00  0.00     0.205 C 
BRANCH   5   6
HETATM    6  C           0      15.200   4.183 -58.327  0.00  0.00     0.206 C 
BRANCH   6   7
HETATM    7  O           0      14.974   5.247 -57.357  0.00  0.00    -0.315 OA
BRANCH   7   8
HETATM    8  C           0      16.024   6.106 -57.085  0.00  0.00     0.293 C 
HETATM    9  O           0      17.033   5.714 -56.548  0.00  0.00    -0.259 OA
HETATM   10  C           0      15.692   7.473 -57.565  0.00  0.00     0.039 A 
HETATM   11  C           0      14.379   7.818 -57.918  0.00  0.00     0.018 A 
HETATM   12  C           0      16.730   8.413 -57.652  0.00  0.00     0.018 A 
HETATM   13  C           0      14.103   9.111 -58.366  0.00  0.00     0.018 A 
HETATM   14  C           0      15.142  10.049 -58.461  0.00  0.00     0.039 A 
HETATM   15  C           0      16.453   9.706 -58.102  0.00  0.00     0.018 A 
HETATM   16  C           0      14.811  11.420 -58.935  0.00  0.00     0.293 C 
HETATM   17  O           0      13.720  11.926 -59.068  0.00  0.00    -0.259 OA
BRANCH  16  18
HETATM   18  O           0      15.970  12.101 -59.235  0.00  0.00    -0.315 OA
BRANCH  18  19
HETATM   19  C           0      16.246  12.407 -60.630  0.00  0.00     0.206 C 
BRANCH  19  20
HETATM   20  C           0      17.633  11.933 -61.047  0.00  0.00     0.206 C 
BRANCH  20  21
HETATM   21  O           0      17.565  10.858 -62.022  0.00  0.00    -0.315 OA
BRANCH  21  22
HETATM   22  C           0      17.864   9.579 -61.602  0.00  0.00     0.293 C 
HETATM   23  O           0      18.979   9.273 -61.247  0.00  0.00    -0.259 OA
HETATM   24  C           0      16.647   8.726 -61.667  0.00  0.00     0.039 A 
HETATM   25  C           0      15.469   9.189 -62.271  0.00  0.00     0.018 A 
HETATM   26  C           0      16.711   7.438 -61.114  0.00  0.00     0.018 A 
HETATM   27  C           0      14.348   8.360 -62.322  0.00  0.00     0.018 A 
HETATM   28  C           0      14.411   7.071 -61.769  0.00  0.00     0.039 A 
HETATM   29  C           0      15.588   6.609 -61.165  0.00  0.00     0.018 A 
HETATM   30  C           0      13.193   6.217 -61.845  0.00  0.00     0.292 C 
HETATM   31  O           0      12.127   6.482 -62.349  0.00  0.00    -0.259 OA
BRANCH  30  32
HETATM   32  O           0      13.427   5.004 -61.236  0.00  0.00    -0.323 OA
HETATM   33  C           0      13.395   3.829 -62.091  0.00  0.00     0.213 C 
ENDBRANCH  30  32
ENDBRANCH  21  22
ENDBRANCH  20  21
ENDBRANCH  19  20
ENDBRANCH  18  19
ENDBRANCH  16  18
ENDBRANCH   7   8
ENDBRANCH   6   7
ENDBRANCH   5   6
ENDBRANCH   4   5
ENDBRANCH   3   4
TORSDOF 15
ENDMDL
MODEL 3
REMARK DSDP RESULT:      -4.478883
REMARK  11 active torsions:
REMARK  status: ('A' for Active; 'I' for Inactive)
REMARK    1  A    between atoms: C_3  and  O_5 
REMARK    2  A    between atoms: O_4  and  C_14 
REMARK    3  A    between atoms: O_4  and  C_15 
REMARK    4  A    between atoms: O_5  and  C_16 
REMARK       I    between atoms: C_8  and  C_15 
REMARK       I    between atoms: C_11  and  C_17 
REMARK    5  A    between atoms: C_14  and  C_16 
REMARK    6  A    between atoms: C_17  and  O_19 
REMARK    7  A    between atoms: O_18  and  C_28 
REMARK    8  A    between atoms: O_18  and  C_29 
REMARK    9  A    between atoms: O_19  and  C_30 
REMARK       I    between atoms: C_22  and  C_29 
REMARK       I    between atoms: C_25  and  C_31 
REMARK   10  A    between atoms: C_28  and  C_30 
REMARK   11  A    between atoms: C_31  and  O_32 
ROOT
HETATM    1  O           0      14.377   5.561 -53.401  0.00  0.00    -0.266 OA
HETATM    2  C           0      13.831   5.759 -55.747  0.00  0.00     0.126 C 
HETATM    3  C           0      13.574   5.532 -54.299  0.00  0.00     0.254 C 
ENDROOT
BRANCH   3   4
HETATM    4  O           0      12.274   5.258 -53.876  0.00  0.00    -0.320 OA
BRANCH   4   5
HETATM    5  C           0      11.930   4.049 -53.170  0.00  0.00     0.205 C 
BRANCH   5   6
HETATM    6  C           0      10.761   3.354 -53.860  0.00  0.00     0.206 C 
BRANCH   6   7
HETATM    7  O           0      11.245   2.418 -54.868  0.00  0.00    -0.315 OA
BRANCH   7   8
HETATM    8  C           0      10.949   2.687 -56.192  0.00  0.00     0.293 C 
HETATM    9  O           0       9.810   2.842 -56.562  0.00  0.00    -0.259 OA
HETATM   10  C           0      12.206   2.760 -56.983  0.00  0.00     0.039 A 
HETATM   11  C           0      13.419   2.290 -56.460  0.00  0.00     0.018 A 
HETATM   12  C           0      12.145   3.310 -58.272  0.00  0.00     0.018 A 
HETATM   13  C           0      14.581   2.374 -57.229  0.00  0.00     0.018 A 
HETATM   14  C           0      14.521   2.931 -58.516  0.00  0.00     0.039 A 
HETATM   15  C           0      13.307   3.396 -59.041  0.00  0.00     0.018 A 
HETATM   16  C           0      15.777   3.000 -59.312  0.00  0.00     0.293 C 
HETATM   17  O           0      16.834   2.453 -59.095  0.00  0.00    -0.259 OA
BRANCH  16  18
HETATM   18  O           0      15.592   3.819 -60.404  0.00  0.00    -0.315 OA
BRANCH  18  19
HETATM   19  C           0      16.047   3.346 -61.702  0.00  0.00     0.206 C 
BRANCH  19  20
HETATM   20  C           0      14.908   3.292 -62.714  0.00  0.00     0.206 C 
BRANCH  20  21
HETATM   21  O           0      13.776   4.102 -62.295  0.00  0.00    -0.315 OA
BRANCH  21  22
HETATM   22  C           0      13.370   5.129 -63.121  0.00  0.00     0.293 C 
HETATM   23  O           0      13.125   4.941 -64.291  0.00  0.00    -0.259 OA
HETATM   24  C           0      13.299   6.401 -62.354  0.00  0.00     0.039 A 
HETATM   25  C           0      13.788   6.484 -61.042  0.00  0.00     0.018 A 
HETATM   26  C           0      12.737   7.522 -62.982  0.00  0.00     0.018 A 
HETATM   27  C           0      13.713   7.695 -60.353  0.00  0.00     0.018 A 
HETATM   28  C           0      13.151   8.818 -60.981  0.00  0.00     0.039 A 
HETATM   29  C           0      12.663   8.734 -62.292  0.00  0.00     0.018 A 
HETATM   30  C           0      13.092  10.092 -60.212  0.00  0.00     0.292 C 
HETATM   31  O           0      13.489  10.306 -59.091  0.00  0.00    -0.259 OA
BRANCH  30  32
HETATM   32  O           0      12.492  11.074 -60.970  0.00  0.00    -0.323 OA
HETATM   33  C           0      11.278  11.664 -60.430  0.00  0.00     0.213 C 
ENDBRANCH  30  32
ENDBRANCH  21  22
ENDBRANCH  20  21
ENDBRANCH  19  20
ENDBRANCH  18  19
ENDBRANCH  16  18
ENDBRANCH   7   8
ENDBRANCH   6   7
ENDBRANCH   5   6
ENDBRANCH   4   5
ENDBRANCH   3   4
TORSDOF 15
ENDMDL
MODEL 4
REMARK DSDP RESULT:      -4.451834
REMARK  11 active torsions:
REMARK  status: ('A' for Active; 'I' for Inactive)
REMARK    1  A    between atoms: C_3  and  O_5 
REMARK    2  A    between atoms: O_4  and  C_14 
REMARK    3  A    between atoms: O_4  and  C_15 
REMARK    4  A    between atoms: O_5  and  C_16 
REMARK       I    between atoms: C_8  and  C_15 
REMARK       I    between atoms: C_11  and  C_17 
REMARK    5  A    between atoms: C_14  and  C_16 
REMARK    6  A    between atoms: C_17  and  O_19 
REMARK    7  A    between atoms: O_18  and  C_28 
REMARK    8  A    between atoms: O_18  and  C_29 
REMARK    9  A    between atoms: O_19  and  C_30 
REMARK       I    between atoms: C_22  and  C_29 
REMARK       I    between atoms: C_25  and  C_31 
REMARK   10  A    between atoms: C_28  and  C_30 
REMARK   11  A    between atoms: C_31  and  O_32 
ROOT
HETATM    1  O           0       8.949   4.596 -53.565  0.00  0.00    -0.266 OA
HETATM    2  C           0      10.842   3.330 -52.757  0.00  0.00     0.126 C 
HETATM    3  C           0       9.453   3.551 -53.242  0.00  0.00     0.254 C 
ENDROOT
BRANCH   3   4
HETATM    4  O           0       8.595   2.458 -53.363  0.00  0.00    -0.320 OA
BRANCH   4   5
HETATM    5  C           0       8.738   1.475 -54.406  0.00  0.00     0.205 C 
BRANCH   5   6
HETATM    6  C           0       9.027   2.160 -55.737  0.00  0.00     0.206 C 
BRANCH   6   7
HETATM    7  O           0      10.265   1.653 -56.317  0.00  0.00    -0.315 OA
BRANCH   7   8
HETATM    8  C           0      10.747   2.277 -57.453  0.00  0.00     0.293 C 
HETATM    9  O           0      10.265   2.063 -58.540  0.00  0.00    -0.259 OA
HETATM   10  C           0      11.860   3.193 -57.089  0.00  0.00     0.039 A 
HETATM   11  C           0      12.474   3.122 -55.831  0.00  0.00     0.018 A 
HETATM   12  C           0      12.284   4.130 -58.043  0.00  0.00     0.018 A 
HETATM   13  C           0      13.517   3.998 -55.521  0.00  0.00     0.018 A 
HETATM   14  C           0      13.935   4.940 -56.473  0.00  0.00     0.039 A 
HETATM   15  C           0      13.325   5.007 -57.733  0.00  0.00     0.018 A 
HETATM   16  C           0      15.053   5.855 -56.113  0.00  0.00     0.293 C 
HETATM   17  O           0      15.812   5.779 -55.175  0.00  0.00    -0.259 OA
BRANCH  16  18
HETATM   18  O           0      15.132   6.877 -57.032  0.00  0.00    -0.315 OA
BRANCH  18  19
HETATM   19  C           0      16.448   7.261 -57.521  0.00  0.00     0.206 C 
BRANCH  19  20
HETATM   20  C           0      16.355   8.093 -58.795  0.00  0.00     0.206 C 
BRANCH  20  21
HETATM   21  O           0      14.992   8.517 -59.065  0.00  0.00    -0.315 OA
BRANCH  21  22
HETATM   22  C           0      14.413   8.129 -60.255  0.00  0.00     0.293 C 
HETATM   23  O           0      14.681   7.070 -60.773  0.00  0.00    -0.259 OA
HETATM   24  C           0      13.476   9.182 -60.730  0.00  0.00     0.039 A 
HETATM   25  C           0      13.411  10.433 -60.100  0.00  0.00     0.018 A 
HETATM   26  C           0      12.661   8.892 -61.835  0.00  0.00     0.018 A 
HETATM   27  C           0      12.526  11.400 -60.578  0.00  0.00     0.018 A 
HETATM   28  C           0      11.711  11.111 -61.683  0.00  0.00     0.039 A 
HETATM   29  C           0      11.776   9.861 -62.312  0.00  0.00     0.018 A 
HETATM   30  C           0      10.781  12.172 -62.163  0.00  0.00     0.292 C 
HETATM   31  O           0      10.637  13.290 -61.728  0.00  0.00    -0.259 OA
BRANCH  30  32
HETATM   32  O           0      10.047  11.709 -63.233  0.00  0.00    -0.323 OA
HETATM   33  C           0      10.309  12.332 -64.520  0.00  0.00     0.213 C 
ENDBRANCH  30  32
ENDBRANCH  21  22
ENDBRANCH  20  21
ENDBRANCH  19  20
ENDBRANCH  18  19
ENDBRANCH  16  18
ENDBRANCH   7   8
ENDBRANCH   6   7
ENDBRANCH   5   6
ENDBRANCH   4   5
ENDBRANCH   3   4
TORSDOF 15
ENDMDL
MODEL 5
REMARK DSDP RESULT:      -4.378751
REMARK  11 active torsions:
REMARK  status: ('A' for Active; 'I' for Inactive)
REMARK    1  A    between atoms: C_3  and  O_5 
REMARK    2  A    between atoms: O_4  and  C_14 
REMARK    3  A    between atoms: O_4  and  C_15 
REMARK    4  A    between atoms: O_5  and  C_16 
REMARK       I    between atoms: C_8  and  C_15 
REMARK       I    between atoms: C_11  and  C_17 
REMARK    5  A    between atoms: C_14  and  C_16 
REMARK    6  A    between atoms: C_17  and  O_19 
REMARK    7  A    between atoms: O_18  and  C_28 
REMARK    8  A    between atoms: O_18  and  C_29 
REMARK    9  A    between atoms: O_19  and  C_30 
REMARK       I    between atoms: C_22  and  C_29 
REMARK       I    between atoms: C_25  and  C_31 
REMARK   10  A    between atoms: C_28  and  C_30 
REMARK   11  A    between atoms: C_31  and  O_32 
ROOT
HETATM    1  O           0       9.996   1.213 -56.374  0.00  0.00    -0.266 OA
HETATM    2  C           0      10.145  -0.659 -54.853  0.00  0.00     0.126 C 
HETATM    3  C           0       9.821   0.727 -55.286  0.00  0.00     0.254 C 
ENDROOT
BRANCH   3   4
HETATM    4  O           0       9.241   1.605 -54.371  0.00  0.00    -0.320 OA
BRANCH   4   5
HETATM    5  C           0      10.020   2.360 -53.423  0.00  0.00     0.205 C 
BRANCH   5   6
HETATM    6  C           0      10.207   3.790 -53.917  0.00  0.00     0.206 C 
BRANCH   6   7
HETATM    7  O           0      11.492   3.936 -54.588  0.00  0.00    -0.315 OA
BRANCH   7   8
HETATM    8  C           0      12.533   4.499 -53.872  0.00  0.00     0.293 C 
HETATM    9  O           0      12.567   4.446 -52.665  0.00  0.00    -0.259 OA
HETATM   10  C           0      13.517   5.104 -54.807  0.00  0.00     0.039 A 
HETATM   11  C           0      13.198   5.318 -56.156  0.00  0.00     0.018 A 
HETATM   12  C           0      14.777   5.460 -54.303  0.00  0.00     0.018 A 
HETATM   13  C           0      14.146   5.888 -57.007  0.00  0.00     0.018 A 
HETATM   14  C           0      15.408   6.237 -56.504  0.00  0.00     0.039 A 
HETATM   15  C           0      15.726   6.028 -55.155  0.00  0.00     0.018 A 
HETATM   16  C           0      16.393   6.849 -57.437  0.00  0.00     0.293 C 
HETATM   17  O           0      16.203   7.288 -58.548  0.00  0.00    -0.259 OA
BRANCH  16  18
HETATM   18  O           0      17.642   6.857 -56.856  0.00  0.00    -0.315 OA
BRANCH  18  19
HETATM   19  C           0      18.741   7.456 -57.599  0.00  0.00     0.206 C 
BRANCH  19  20
HETATM   20  C           0      19.838   7.964 -56.670  0.00  0.00     0.206 C 
BRANCH  20  21
HETATM   21  O           0      20.247   9.317 -57.009  0.00  0.00    -0.315 OA
BRANCH  21  22
HETATM   22  C           0      19.937  10.331 -56.128  0.00  0.00     0.293 C 
HETATM   23  O           0      19.714  10.108 -54.960  0.00  0.00    -0.259 OA
HETATM   24  C           0      19.933  11.638 -56.838  0.00  0.00     0.039 A 
HETATM   25  C           0      20.040  11.704 -58.235  0.00  0.00     0.018 A 
HETATM   26  C           0      19.811  12.807 -56.072  0.00  0.00     0.018 A 
HETATM   27  C           0      20.024  12.946 -58.869  0.00  0.00     0.018 A 
HETATM   28  C           0      19.902  14.117 -58.104  0.00  0.00     0.039 A 
HETATM   29  C           0      19.795  14.050 -56.708  0.00  0.00     0.018 A 
HETATM   30  C           0      19.887  15.423 -58.820  0.00  0.00     0.292 C 
HETATM   31  O           0      19.953  15.621 -60.010  0.00  0.00    -0.259 OA
BRANCH  30  32
HETATM   32  O           0      19.785  16.457 -57.915  0.00  0.00    -0.323 OA
HETATM   33  C           0      20.468  17.693 -58.260  0.00  0.00     0.213 C 
ENDBRANCH  30  32
ENDBRANCH  21  22
ENDBRANCH  20  21
ENDBRANCH  19  20
ENDBRANCH  18  19
ENDBRANCH  16  18
ENDBRANCH   7   8
ENDBRANCH   6   7
ENDBRANCH   5   6
ENDBRANCH   4   5
ENDBRANCH   3   4
TORSDOF 15
ENDMDL
MODEL 6
REMARK DSDP RESULT:      -4.377789
REMARK  11 active torsions:
REMARK  status: ('A' for Active; 'I' for Inactive)
REMARK    1  A    between atoms: C_3  and  O_5 
REMARK    2  A    between atoms: O_4  and  C_14 
REMARK    3  A    between atoms: O_4  and  C_15 
REMARK    4  A    between atoms: O_5  and  C_16 
REMARK       I    between atoms: C_8  and  C_15 
REMARK       I    between atoms: C_11  and  C_17 
REMARK    5  A    between atoms: C_14  and  C_16 
REMARK    6  A    between atoms: C_17  and  O_19 
REMARK    7  A    between atoms: O_18  and  C_28 
REMARK    8  A    between atoms: O_18  and  C_29 
REMARK    9  A    between atoms: O_19  and  C_30 
REMARK       I    between atoms: C_22  and  C_29 
REMARK       I    between atoms: C_25  and  C_31 
REMARK   10  A    between atoms: C_28  and  C_30 
REMARK   11  A    between atoms: C_31  and  O_32 
ROOT
HETATM    1  O           0      13.942   5.232 -53.119  0.00  0.00    -0.266 OA
HETATM    2  C           0      13.575   5.619 -55.476  0.00  0.00     0.126 C 
HETATM    3  C           0      13.212   5.268 -54.076  0.00  0.00     0.254 C 
ENDROOT
BRANCH   3   4
HETATM    4  O           0      11.888   4.945 -53.780  0.00  0.00    -0.320 OA
BRANCH   4   5
HETATM    5  C           0      11.516   3.691 -53.175  0.00  0.00     0.205 C 
BRANCH   5   6
HETATM    6  C           0      10.313   3.096 -53.900  0.00  0.00     0.206 C 
BRANCH   6   7
HETATM    7  O           0      10.748   2.237 -54.994  0.00  0.00    -0.315 OA
BRANCH   7   8
HETATM    8  C           0      10.555   2.691 -56.286  0.00  0.00     0.293 C 
HETATM    9  O           0       9.448   2.917 -56.714  0.00  0.00    -0.259 OA
HETATM   10  C           0      11.868   2.848 -56.964  0.00  0.00     0.039 A 
HETATM   11  C           0      13.034   2.287 -56.424  0.00  0.00     0.018 A 
HETATM   12  C           0      11.909   3.572 -58.166  0.00  0.00     0.018 A 
HETATM   13  C           0      14.251   2.455 -57.087  0.00  0.00     0.018 A 
HETATM   14  C           0      14.294   3.185 -58.285  0.00  0.00     0.039 A 
HETATM   15  C           0      13.127   3.741 -58.828  0.00  0.00     0.018 A 
HETATM   16  C           0      15.607   3.339 -58.969  0.00  0.00     0.293 C 
HETATM   17  O           0      16.640   2.748 -58.754  0.00  0.00    -0.259 OA
BRANCH  16  18
HETATM   18  O           0      15.511   4.304 -59.947  0.00  0.00    -0.315 OA
BRANCH  18  19
HETATM   19  C           0      15.896   3.947 -61.304  0.00  0.00     0.206 C 
BRANCH  19  20
HETATM   20  C           0      14.828   4.344 -62.316  0.00  0.00     0.206 C 
BRANCH  20  21
HETATM   21  O           0      13.833   5.228 -61.732  0.00  0.00    -0.315 OA
BRANCH  21  22
HETATM   22  C           0      13.629   6.458 -62.321  0.00  0.00     0.293 C 
HETATM   23  O           0      13.332   6.559 -63.489  0.00  0.00    -0.259 OA
HETATM   24  C           0      13.831   7.541 -61.321  0.00  0.00     0.039 A 
HETATM   25  C           0      14.348   7.263 -60.047  0.00  0.00     0.018 A 
HETATM   26  C           0      13.497   8.852 -61.689  0.00  0.00     0.018 A 
HETATM   27  C           0      14.533   8.303 -59.136  0.00  0.00     0.018 A 
HETATM   28  C           0      14.199   9.616 -59.504  0.00  0.00     0.039 A 
HETATM   29  C           0      13.682   9.893 -60.777  0.00  0.00     0.018 A 
HETATM   30  C           0      14.412  10.698 -58.502  0.00  0.00     0.292 C 
HETATM   31  O           0      14.863  10.603 -57.385  0.00  0.00    -0.259 OA
BRANCH  30  32
HETATM   32  O           0      14.011  11.910 -59.023  0.00  0.00    -0.323 OA
HETATM   33  C           0      14.803  12.442 -60.119  0.00  0.00     0.213 C 
ENDBRANCH  30  32
ENDBRANCH  21  22
ENDBRANCH  20  21
ENDBRANCH  19  20
ENDBRANCH  18  19
ENDBRANCH  16  18
ENDBRANCH   7   8
ENDBRANCH   6   7
ENDBRANCH   5   6
ENDBRANCH   4   5
ENDBRANCH   3   4
TORSDOF 15
ENDMDL
MODEL 7
REMARK DSDP RESULT:      -4.329665
REMARK  11 active torsions:
REMARK  status: ('A' for Active; 'I' for Inactive)
REMARK    1  A    between atoms: C_3  and  O_5 
REMARK    2  A    between atoms: O_4  and  C_14 
REMARK    3  A    between atoms: O_4  and  C_15 
REMARK    4  A    between atoms: O_5  and  C_16 
REMARK       I    between atoms: C_8  and  C_15 
REMARK       I    between atoms: C_11  and  C_17 
REMARK    5  A    between atoms: C_14  and  C_16 
REMARK    6  A    between atoms: C_17  and  O_19 
REMARK    7  A    between atoms: O_18  and  C_28 
REMARK    8  A    between atoms: O_18  and  C_29 
REMARK    9  A    between atoms: O_19  and  C_30 
REMARK       I    between atoms: C_22  and  C_29 
REMARK       I    between atoms: C_25  and  C_31 
REMARK   10  A    between atoms: C_28  and  C_30 
REMARK   11  A    between atoms: C_31  and  O_32 
ROOT
HETATM    1  O           0      14.525  11.940 -58.482  0.00  0.00    -0.266 OA
HETATM    2  C           0      13.203  11.296 -60.399  0.00  0.00     0.126 C 
HETATM    3  C           0      14.061  11.092 -59.201  0.00  0.00     0.254 C 
ENDROOT
BRANCH   3   4
HETATM    4  O           0      14.391   9.793 -58.814  0.00  0.00    -0.320 OA
BRANCH   4   5
HETATM    5  C           0      15.642   9.471 -58.178  0.00  0.00     0.205 C 
BRANCH   5   6
HETATM    6  C           0      15.639   8.015 -57.722  0.00  0.00     0.206 C 
BRANCH   6   7
HETATM    7  O           0      14.280   7.571 -57.437  0.00  0.00    -0.315 OA
BRANCH   7   8
HETATM    8  C           0      14.123   6.409 -56.704  0.00  0.00     0.293 C 
HETATM    9  O           0      14.428   6.356 -55.536  0.00  0.00    -0.259 OA
HETATM   10  C           0      13.536   5.348 -57.564  0.00  0.00     0.039 A 
HETATM   11  C           0      13.494   5.487 -58.959  0.00  0.00     0.018 A 
HETATM   12  C           0      13.027   4.198 -56.941  0.00  0.00     0.018 A 
HETATM   13  C           0      12.935   4.472 -59.737  0.00  0.00     0.018 A 
HETATM   14  C           0      12.420   3.325 -59.114  0.00  0.00     0.039 A 
HETATM   15  C           0      12.467   3.183 -57.720  0.00  0.00     0.018 A 
HETATM   16  C           0      11.837   2.259 -59.973  0.00  0.00     0.293 C 
HETATM   17  O           0      11.920   2.133 -61.173  0.00  0.00    -0.259 OA
BRANCH  16  18
HETATM   18  O           0      11.136   1.364 -59.195  0.00  0.00    -0.315 OA
BRANCH  18  19
HETATM   19  C           0      10.734   0.101 -59.793  0.00  0.00     0.206 C 
BRANCH  19  20
HETATM   20  C           0       9.219  -0.010 -59.912  0.00  0.00     0.206 C 
BRANCH  20  21
HETATM   21  O           0       8.579  -0.090 -58.609  0.00  0.00    -0.315 OA
BRANCH  21  22
HETATM   22  C           0       9.334  -0.523 -57.540  0.00  0.00     0.293 C 
HETATM   23  O           0       9.761  -1.654 -57.482  0.00  0.00    -0.259 OA
HETATM   24  C           0       9.504   0.581 -56.558  0.00  0.00     0.039 A 
HETATM   25  C           0       8.795   1.784 -56.690  0.00  0.00     0.018 A 
HETATM   26  C           0      10.389   0.384 -55.487  0.00  0.00     0.018 A 
HETATM   27  C           0       8.972   2.796 -55.745  0.00  0.00     0.018 A 
HETATM   28  C           0       9.858   2.599 -54.674  0.00  0.00     0.039 A 
HETATM   29  C           0      10.566   1.397 -54.543  0.00  0.00     0.018 A 
HETATM   30  C           0      10.017   3.704 -53.687  0.00  0.00     0.292 C 
HETATM   31  O           0       9.459   4.776 -53.671  0.00  0.00    -0.259 OA
BRANCH  30  32
HETATM   32  O           0      10.936   3.348 -52.724  0.00  0.00    -0.323 OA
HETATM   33  C           0      12.154   4.139 -52.663  0.00  0.00     0.213 C 
ENDBRANCH  30  32
ENDBRANCH  21  22
ENDBRANCH  20  21
ENDBRANCH  19  20
ENDBRANCH  18  19
ENDBRANCH  16  18
ENDBRANCH   7   8
ENDBRANCH   6   7
ENDBRANCH   5   6
ENDBRANCH   4   5
ENDBRANCH   3   4
TORSDOF 15
ENDMDL
MODEL 8
REMARK DSDP RESULT:      -4.216435
REMARK  11 active torsions:
REMARK  status: ('A' for Active; 'I' for Inactive)
REMARK    1  A    between atoms: C_3  and  O_5 
REMARK    2  A    between atoms: O_4  and  C_14 
REMARK    3  A    between atoms: O_4  and  C_15 
REMARK    4  A    between atoms: O_5  and  C_16 
REMARK       I    between atoms: C_8  and  C_15 
REMARK       I    between atoms: C_11  and  C_17 
REMARK    5  A    between atoms: C_14  and  C_16 
REMARK    6  A    between atoms: C_17  and  O_19 
REMARK    7  A    between atoms: O_18  and  C_28 
REMARK    8  A    between atoms: O_18  and  C_29 
REMARK    9  A    between atoms: O_19  and  C_30 
REMARK       I    between atoms: C_22  and  C_29 
REMARK       I    between atoms: C_25  and  C_31 
REMARK   10  A    between atoms: C_28  and  C_30 
REMARK   11  A    between atoms: C_31  and  O_32 
ROOT
HETATM    1  O           0      12.702   5.369 -54.781  0.00  0.00    -0.266 OA
HETATM    2  C           0      14.494   5.974 -53.277  0.00  0.00     0.126 C 
HETATM    3  C           0      13.866   5.595 -54.572  0.00  0.00     0.254 C 
ENDROOT
BRANCH   3   4
HETATM    4  O           0      14.668   5.483 -55.708  0.00  0.00    -0.320 OA
BRANCH   4   5
HETATM    5  C           0      14.116   5.355 -57.033  0.00  0.00     0.205 C 
BRANCH   5   6
HETATM    6  C           0      14.634   4.084 -57.696  0.00  0.00     0.206 C 
BRANCH   6   7
HETATM    7  O           0      13.602   3.055 -57.707  0.00  0.00    -0.315 OA
BRANCH   7   8
HETATM    8  C           0      12.402   3.352 -58.329  0.00  0.00     0.293 C 
HETATM    9  O           0      12.372   3.876 -59.417  0.00  0.00    -0.259 OA
HETATM   10  C           0      11.270   2.914 -57.471  0.00  0.00     0.039 A 
HETATM   11  C           0      11.470   2.573 -56.126  0.00  0.00     0.018 A 
HETATM   12  C           0       9.990   2.855 -58.045  0.00  0.00     0.018 A 
HETATM   13  C           0      10.384   2.165 -55.349  0.00  0.00     0.018 A 
HETATM   14  C           0       9.106   2.099 -55.924  0.00  0.00     0.039 A 
HETATM   15  C           0       8.905   2.445 -57.268  0.00  0.00     0.018 A 
HETATM   16  C           0       7.969   1.666 -55.066  0.00  0.00     0.293 C 
HETATM   17  O           0       7.939   1.550 -53.863  0.00  0.00    -0.259 OA
BRANCH  16  18
HETATM   18  O           0       6.873   1.387 -55.852  0.00  0.00    -0.315 OA
BRANCH  18  19
HETATM   19  C           0       6.263   0.071 -55.737  0.00  0.00     0.206 C 
BRANCH  19  20
HETATM   20  C           0       6.130  -0.609 -57.095  0.00  0.00     0.206 C 
BRANCH  20  21
HETATM   21  O           0       7.395  -1.161 -57.548  0.00  0.00    -0.315 OA
BRANCH  21  22
HETATM   22  C           0       7.805  -0.879 -58.834  0.00  0.00     0.293 C 
HETATM   23  O           0       7.017  -0.813 -59.750  0.00  0.00    -0.259 OA
HETATM   24  C           0       9.280  -0.689 -58.867  0.00  0.00     0.039 A 
HETATM   25  C           0      10.073  -0.976 -57.746  0.00  0.00     0.018 A 
HETATM   26  C           0       9.860  -0.223 -60.056  0.00  0.00     0.018 A 
HETATM   27  C           0      11.454  -0.795 -57.815  0.00  0.00     0.018 A 
HETATM   28  C           0      12.036  -0.328 -59.004  0.00  0.00     0.039 A 
HETATM   29  C           0      11.243  -0.041 -60.123  0.00  0.00     0.018 A 
HETATM   30  C           0      13.515  -0.149 -59.035  0.00  0.00     0.292 C 
HETATM   31  O           0      14.312  -0.373 -58.155  0.00  0.00    -0.259 OA
BRANCH  30  32
HETATM   32  O           0      13.906   0.335 -60.265  0.00  0.00    -0.323 OA
HETATM   33  C           0      15.232   0.925 -60.340  0.00  0.00     0.213 C 
ENDBRANCH  30  32
ENDBRANCH  21  22
ENDBRANCH  20  21
ENDBRANCH  19  20
ENDBRANCH  18  19
ENDBRANCH  16  18
ENDBRANCH   7   8
ENDBRANCH   6   7
ENDBRANCH   5   6
ENDBRANCH   4   5
ENDBRANCH   3   4
TORSDOF 15
ENDMDL
MODEL 9
REMARK DSDP RESULT:      -4.188193
REMARK  11 active torsions:
REMARK  status: ('A' for Active; 'I' for Inactive)
REMARK    1  A    between atoms: C_3  and  O_5 
REMARK    2  A    between atoms: O_4  and  C_14 
REMARK    3  A    between atoms: O_4  and  C_15 
REMARK    4  A    between atoms: O_5  and  C_16 
REMARK       I    between atoms: C_8  and  C_15 
REMARK       I    between atoms: C_11  and  C_17 
REMARK    5  A    between atoms: C_14  and  C_16 
REMARK    6  A    between atoms: C_17  and  O_19 
REMARK    7  A    between atoms: O_18  and  C_28 
REMARK    8  A    between atoms: O_18  and  C_29 
REMARK    9  A    between atoms: O_19  and  C_30 
REMARK       I    between atoms: C_22  and  C_29 
REMARK       I    between atoms: C_25  and  C_31 
REMARK   10  A    between atoms: C_28  and  C_30 
REMARK   11  A    between atoms: C_31  and  O_32 
ROOT
HETATM    1  O           0       6.242   1.863 -58.339  0.00  0.00    -0.266 OA
HETATM    2  C           0       4.066   2.537 -57.532  0.00  0.00     0.126 C 
HETATM    3  C           0       5.485   2.101 -57.432  0.00  0.00     0.254 C 
ENDROOT
BRANCH   3   4
HETATM    4  O           0       6.059   1.942 -56.171  0.00  0.00    -0.320 OA
BRANCH   4   5
HETATM    5  C           0       7.232   1.133 -55.952  0.00  0.00     0.205 C 
BRANCH   5   6
HETATM    6  C           0       7.211   0.551 -54.543  0.00  0.00     0.206 C 
BRANCH   6   7
HETATM    7  O           0       8.569   0.310 -54.069  0.00  0.00    -0.315 OA
BRANCH   7   8
HETATM    8  C           0       9.586   0.296 -55.006  0.00  0.00     0.293 C 
HETATM    9  O           0       9.697  -0.610 -55.799  0.00  0.00    -0.259 OA
HETATM   10  C           0      10.418   1.519 -54.863  0.00  0.00     0.039 A 
HETATM   11  C           0      10.321   2.332 -53.725  0.00  0.00     0.018 A 
HETATM   12  C           0      11.311   1.836 -55.898  0.00  0.00     0.018 A 
HETATM   13  C           0      11.117   3.474 -53.623  0.00  0.00     0.018 A 
HETATM   14  C           0      12.004   3.796 -54.661  0.00  0.00     0.039 A 
HETATM   15  C           0      12.106   2.979 -55.796  0.00  0.00     0.018 A 
HETATM   16  C           0      12.843   5.016 -54.517  0.00  0.00     0.293 C 
HETATM   17  O           0      13.031   5.687 -53.528  0.00  0.00    -0.259 OA
BRANCH  16  18
HETATM   18  O           0      13.425   5.327 -55.727  0.00  0.00    -0.315 OA
BRANCH  18  19
HETATM   19  C           0      14.838   5.030 -55.905  0.00  0.00     0.206 C 
BRANCH  19  20
HETATM   20  C           0      15.555   6.139 -56.667  0.00  0.00     0.206 C 
BRANCH  20  21
HETATM   21  O           0      14.636   7.181 -57.095  0.00  0.00    -0.315 OA
BRANCH  21  22
HETATM   22  C           0      14.266   7.216 -58.423  0.00  0.00     0.293 C 
HETATM   23  O           0      13.837   6.236 -58.987  0.00  0.00    -0.259 OA
HETATM   24  C           0      14.480   8.581 -58.973  0.00  0.00     0.039 A 
HETATM   25  C           0      15.153   9.564 -58.233  0.00  0.00     0.018 A 
HETATM   26  C           0      13.997   8.858 -60.261  0.00  0.00     0.018 A 
HETATM   27  C           0      15.344  10.832 -58.784  0.00  0.00     0.018 A 
HETATM   28  C           0      14.861  11.110 -60.072  0.00  0.00     0.039 A 
HETATM   29  C           0      14.189  10.128 -60.811  0.00  0.00     0.018 A 
HETATM   30  C           0      15.087  12.475 -60.623  0.00  0.00     0.292 C 
HETATM   31  O           0      15.662  13.404 -60.105  0.00  0.00    -0.259 OA
BRANCH  30  32
HETATM   32  O           0      14.530  12.576 -61.880  0.00  0.00    -0.323 OA
HETATM   33  C           0      14.124  13.904 -62.307  0.00  0.00     0.213 C 
ENDBRANCH  30  32
ENDBRANCH  21  22
ENDBRANCH  20  21
ENDBRANCH  19  20
ENDBRANCH  18  19
ENDBRANCH  16  18
ENDBRANCH   7   8
ENDBRANCH   6   7
ENDBRANCH   5   6
ENDBRANCH   4   5
ENDBRANCH   3   4
TORSDOF 15
ENDMDL
