MODEL 0
REMARK DSDP RESULT:      -5.686772
REMARK  7 active torsions:
REMARK  status: ('A' for Active; 'I' for Inactive)
REMARK    1  A    between atoms: C3_3  and  C10_10 
REMARK    2  A    between atoms: C6_6  and  C7_7 
REMARK    3  A    between atoms: C7_7  and  O8_8 
REMARK    4  A    between atoms: C10_10  and  O12_12 
REMARK    5  A    between atoms: O12_12  and  C13_13 
REMARK    6  A    between atoms: C13_13  and  C14_14 
REMARK    7  A    between atoms: C14_14  and  O15_15 
ROOT
ATOM      1  C1  SUB dUNIT       9.966   0.983 -54.746  0.00  0.00     0.019 A 
ATOM      2  C2  SUB dUNIT      10.873   1.868 -54.338  0.00  0.00     0.018 A 
ATOM      3  C3  SUB dUNIT      10.473   2.983 -53.479  0.00  0.00     0.039 A 
ATOM      4  C4  SUB dUNIT       9.202   3.114 -53.103  0.00  0.00     0.018 A 
ATOM      5  C5  SUB dUNIT       8.204   2.141 -53.551  0.00  0.00     0.019 A 
ATOM      6  C6  SUB dUNIT       8.568   1.127 -54.333  0.00  0.00     0.037 A 
ENDROOT
BRANCH   6   7
ATOM      7  C7  SUB dUNIT       7.573   0.156 -54.781  0.00  0.00     0.176 C 
ATOM      8  O9  SUB dUNIT       7.300   0.062 -55.983  0.00  0.00    -0.646 OA
BRANCH   7   9
ATOM      9  O8  SUB dUNIT       6.934  -0.662 -53.856  0.00  0.00    -0.773 OA
ATOM     10  H5  SUB dUNIT       7.648  -1.244 -53.351  0.00  0.00     0.167 HD
ENDBRANCH   7   9
ENDBRANCH   6   7
BRANCH   3  11
ATOM     11  C10 SUB dUNIT      11.468   3.951 -53.033  0.00  0.00     0.293 C 
ATOM     12  O11 SUB dUNIT      11.961   3.852 -51.903  0.00  0.00    -0.259 OA
BRANCH  11  13
ATOM     13  O12 SUB dUNIT      11.859   4.984 -53.879  0.00  0.00    -0.315 OA
BRANCH  13  14
ATOM     14  C13 SUB dUNIT      13.231   4.816 -54.242  0.00  0.00     0.205 C 
BRANCH  14  15
ATOM     15  C14 SUB dUNIT      14.077   5.910 -53.569  0.00  0.00     0.191 C 
BRANCH  15  16
ATOM     16  O15 SUB dUNIT      15.445   5.494 -53.522  0.00  0.00    -0.399 OA
ATOM     17  H10 SUB dUNIT      15.521   4.603 -52.971  0.00  0.00     0.209 HD
ENDBRANCH  15  16
ENDBRANCH  14  15
ENDBRANCH  13  14
ENDBRANCH  11  13
ENDBRANCH   3  11
TORSDOF 7
ENDMDL
MODEL 1
REMARK DSDP RESULT:      -5.682678
REMARK  7 active torsions:
REMARK  status: ('A' for Active; 'I' for Inactive)
REMARK    1  A    between atoms: C3_3  and  C10_10 
REMARK    2  A    between atoms: C6_6  and  C7_7 
REMARK    3  A    between atoms: C7_7  and  O8_8 
REMARK    4  A    between atoms: C10_10  and  O12_12 
REMARK    5  A    between atoms: O12_12  and  C13_13 
REMARK    6  A    between atoms: C13_13  and  C14_14 
REMARK    7  A    between atoms: C14_14  and  O15_15 
ROOT
ATOM      1  C1  SUB dUNIT       9.964   0.992 -54.758  0.00  0.00     0.019 A 
ATOM      2  C2  SUB dUNIT      10.872   1.874 -54.346  0.00  0.00     0.018 A 
ATOM      3  C3  SUB dUNIT      10.473   2.985 -53.481  0.00  0.00     0.039 A 
ATOM      4  C4  SUB dUNIT       9.203   3.116 -53.104  0.00  0.00     0.018 A 
ATOM      5  C5  SUB dUNIT       8.203   2.146 -53.556  0.00  0.00     0.019 A 
ATOM      6  C6  SUB dUNIT       8.566   1.135 -54.343  0.00  0.00     0.037 A 
ENDROOT
BRANCH   6   7
ATOM      7  C7  SUB dUNIT       7.570   0.167 -54.795  0.00  0.00     0.176 C 
ATOM      8  O9  SUB dUNIT       6.861  -0.419 -53.970  0.00  0.00    -0.646 OA
BRANCH   7   9
ATOM      9  O8  SUB dUNIT       7.420  -0.093 -56.152  0.00  0.00    -0.773 OA
ATOM     10  H5  SUB dUNIT       7.159   0.792 -56.653  0.00  0.00     0.167 HD
ENDBRANCH   7   9
ENDBRANCH   6   7
BRANCH   3  11
ATOM     11  C10 SUB dUNIT      11.469   3.950 -53.031  0.00  0.00     0.293 C 
ATOM     12  O11 SUB dUNIT      11.960   3.849 -51.900  0.00  0.00    -0.259 OA
BRANCH  11  13
ATOM     13  O12 SUB dUNIT      11.866   4.983 -53.874  0.00  0.00    -0.315 OA
BRANCH  13  14
ATOM     14  C13 SUB dUNIT      13.239   4.814 -54.231  0.00  0.00     0.205 C 
BRANCH  14  15
ATOM     15  C14 SUB dUNIT      14.085   5.902 -53.549  0.00  0.00     0.191 C 
BRANCH  15  16
ATOM     16  O15 SUB dUNIT      15.457   5.499 -53.530  0.00  0.00    -0.399 OA
ATOM     17  H10 SUB dUNIT      15.549   4.598 -52.998  0.00  0.00     0.209 HD
ENDBRANCH  15  16
ENDBRANCH  14  15
ENDBRANCH  13  14
ENDBRANCH  11  13
ENDBRANCH   3  11
TORSDOF 7
ENDMDL
MODEL 2
REMARK DSDP RESULT:      -5.677436
REMARK  7 active torsions:
REMARK  status: ('A' for Active; 'I' for Inactive)
REMARK    1  A    between atoms: C3_3  and  C10_10 
REMARK    2  A    between atoms: C6_6  and  C7_7 
REMARK    3  A    between atoms: C7_7  and  O8_8 
REMARK    4  A    between atoms: C10_10  and  O12_12 
REMARK    5  A    between atoms: O12_12  and  C13_13 
REMARK    6  A    between atoms: C13_13  and  C14_14 
REMARK    7  A    between atoms: C14_14  and  O15_15 
ROOT
ATOM      1  C1  SUB dUNIT      14.532   5.930 -54.465  0.00  0.00     0.019 A 
ATOM      2  C2  SUB dUNIT      13.644   5.398 -53.627  0.00  0.00     0.018 A 
ATOM      3  C3  SUB dUNIT      12.720   4.366 -54.100  0.00  0.00     0.039 A 
ATOM      4  C4  SUB dUNIT      12.764   3.959 -55.367  0.00  0.00     0.018 A 
ATOM      5  C5  SUB dUNIT      13.740   4.544 -56.289  0.00  0.00     0.019 A 
ATOM      6  C6  SUB dUNIT      14.581   5.482 -55.859  0.00  0.00     0.037 A 
ENDROOT
BRANCH   6   7
ATOM      7  C7  SUB dUNIT      15.555   6.067 -56.777  0.00  0.00     0.176 C 
ATOM      8  O9  SUB dUNIT      15.359   7.192 -57.250  0.00  0.00    -0.646 OA
BRANCH   7   9
ATOM      9  O8  SUB dUNIT      16.701   5.358 -57.118  0.00  0.00    -0.773 OA
ATOM     10  H5  SUB dUNIT      17.259   5.155 -56.252  0.00  0.00     0.167 HD
ENDBRANCH   7   9
ENDBRANCH   6   7
BRANCH   3  11
ATOM     11  C10 SUB dUNIT      11.748   3.784 -53.182  0.00  0.00     0.293 C 
ATOM     12  O11 SUB dUNIT      11.853   3.983 -51.966  0.00  0.00    -0.259 OA
BRANCH  11  13
ATOM     13  O12 SUB dUNIT      10.706   3.006 -53.676  0.00  0.00    -0.315 OA
BRANCH  13  14
ATOM     14  C13 SUB dUNIT       9.502   3.306 -52.966  0.00  0.00     0.205 C 
BRANCH  14  15
ATOM     15  C14 SUB dUNIT       8.542   4.078 -53.887  0.00  0.00     0.191 C 
BRANCH  15  16
ATOM     16  O15 SUB dUNIT       8.641   5.478 -53.614  0.00  0.00    -0.399 OA
ATOM     17  H10 SUB dUNIT       8.385   5.658 -52.611  0.00  0.00     0.209 HD
ENDBRANCH  15  16
ENDBRANCH  14  15
ENDBRANCH  13  14
ENDBRANCH  11  13
ENDBRANCH   3  11
TORSDOF 7
ENDMDL
MODEL 3
REMARK DSDP RESULT:      -5.664347
REMARK  7 active torsions:
REMARK  status: ('A' for Active; 'I' for Inactive)
REMARK    1  A    between atoms: C3_3  and  C10_10 
REMARK    2  A    between atoms: C6_6  and  C7_7 
REMARK    3  A    between atoms: C7_7  and  O8_8 
REMARK    4  A    between atoms: C10_10  and  O12_12 
REMARK    5  A    between atoms: O12_12  and  C13_13 
REMARK    6  A    between atoms: C13_13  and  C14_14 
REMARK    7  A    between atoms: C14_14  and  O15_15 
ROOT
ATOM      1  C1  SUB dUNIT      13.656   4.484 -56.323  0.00  0.00     0.019 A 
ATOM      2  C2  SUB dUNIT      12.772   3.943 -55.488  0.00  0.00     0.018 A 
ATOM      3  C3  SUB dUNIT      12.724   4.379 -54.091  0.00  0.00     0.039 A 
ATOM      4  C4  SUB dUNIT      13.564   5.316 -53.654  0.00  0.00     0.018 A 
ATOM      5  C5  SUB dUNIT      14.536   5.911 -54.573  0.00  0.00     0.019 A 
ATOM      6  C6  SUB dUNIT      14.580   5.515 -55.843  0.00  0.00     0.037 A 
ENDROOT
BRANCH   6   7
ATOM      7  C7  SUB dUNIT      15.549   6.107 -56.760  0.00  0.00     0.176 C 
ATOM      8  O9  SUB dUNIT      15.326   7.214 -57.264  0.00  0.00    -0.646 OA
BRANCH   7   9
ATOM      9  O8  SUB dUNIT      16.722   5.427 -57.067  0.00  0.00    -0.773 OA
ATOM     10  H5  SUB dUNIT      17.272   5.263 -56.187  0.00  0.00     0.167 HD
ENDBRANCH   7   9
ENDBRANCH   6   7
BRANCH   3  11
ATOM     11  C10 SUB dUNIT      11.755   3.786 -53.177  0.00  0.00     0.293 C 
ATOM     12  O11 SUB dUNIT      11.857   3.980 -51.960  0.00  0.00    -0.259 OA
BRANCH  11  13
ATOM     13  O12 SUB dUNIT      10.719   3.002 -53.675  0.00  0.00    -0.315 OA
BRANCH  13  14
ATOM     14  C13 SUB dUNIT       9.509   3.303 -52.977  0.00  0.00     0.205 C 
BRANCH  14  15
ATOM     15  C14 SUB dUNIT       8.556   4.071 -53.909  0.00  0.00     0.191 C 
BRANCH  15  16
ATOM     16  O15 SUB dUNIT       8.638   5.471 -53.627  0.00  0.00    -0.399 OA
ATOM     17  H10 SUB dUNIT       8.366   5.643 -52.627  0.00  0.00     0.209 HD
ENDBRANCH  15  16
ENDBRANCH  14  15
ENDBRANCH  13  14
ENDBRANCH  11  13
ENDBRANCH   3  11
TORSDOF 7
ENDMDL
MODEL 4
REMARK DSDP RESULT:      -5.644573
REMARK  7 active torsions:
REMARK  status: ('A' for Active; 'I' for Inactive)
REMARK    1  A    between atoms: C3_3  and  C10_10 
REMARK    2  A    between atoms: C6_6  and  C7_7 
REMARK    3  A    between atoms: C7_7  and  O8_8 
REMARK    4  A    between atoms: C10_10  and  O12_12 
REMARK    5  A    between atoms: O12_12  and  C13_13 
REMARK    6  A    between atoms: C13_13  and  C14_14 
REMARK    7  A    between atoms: C14_14  and  O15_15 
ROOT
ATOM      1  C1  SUB dUNIT       9.159   1.361 -54.113  0.00  0.00     0.019 A 
ATOM      2  C2  SUB dUNIT      10.268   2.010 -53.766  0.00  0.00     0.018 A 
ATOM      3  C3  SUB dUNIT      10.231   3.456 -53.542  0.00  0.00     0.039 A 
ATOM      4  C4  SUB dUNIT       9.088   4.125 -53.685  0.00  0.00     0.018 A 
ATOM      5  C5  SUB dUNIT       7.867   3.412 -54.066  0.00  0.00     0.019 A 
ATOM      6  C6  SUB dUNIT       7.901   2.097 -54.270  0.00  0.00     0.037 A 
ENDROOT
BRANCH   6   7
ATOM      7  C7  SUB dUNIT       6.685   1.385 -54.650  0.00  0.00     0.176 C 
ATOM      8  O9  SUB dUNIT       6.558   0.187 -54.372  0.00  0.00    -0.646 OA
BRANCH   7   9
ATOM      9  O8  SUB dUNIT       5.670   2.054 -55.325  0.00  0.00    -0.773 OA
ATOM     10  H5  SUB dUNIT       5.324   2.851 -54.735  0.00  0.00     0.167 HD
ENDBRANCH   7   9
ENDBRANCH   6   7
BRANCH   3  11
ATOM     11  C10 SUB dUNIT      11.447   4.166 -53.162  0.00  0.00     0.293 C 
ATOM     12  O11 SUB dUNIT      12.024   3.879 -52.106  0.00  0.00    -0.259 OA
BRANCH  11  13
ATOM     13  O12 SUB dUNIT      11.955   5.163 -53.988  0.00  0.00    -0.315 OA
BRANCH  13  14
ATOM     14  C13 SUB dUNIT      13.094   4.669 -54.696  0.00  0.00     0.205 C 
BRANCH  14  15
ATOM     15  C14 SUB dUNIT      14.222   5.714 -54.648  0.00  0.00     0.191 C 
BRANCH  15  16
ATOM     16  O15 SUB dUNIT      14.958   5.567 -53.430  0.00  0.00    -0.399 OA
ATOM     17  H10 SUB dUNIT      14.314   5.708 -52.613  0.00  0.00     0.209 HD
ENDBRANCH  15  16
ENDBRANCH  14  15
ENDBRANCH  13  14
ENDBRANCH  11  13
ENDBRANCH   3  11
TORSDOF 7
ENDMDL
MODEL 5
REMARK DSDP RESULT:      -5.600030
REMARK  7 active torsions:
REMARK  status: ('A' for Active; 'I' for Inactive)
REMARK    1  A    between atoms: C3_3  and  C10_10 
REMARK    2  A    between atoms: C6_6  and  C7_7 
REMARK    3  A    between atoms: C7_7  and  O8_8 
REMARK    4  A    between atoms: C10_10  and  O12_12 
REMARK    5  A    between atoms: O12_12  and  C13_13 
REMARK    6  A    between atoms: C13_13  and  C14_14 
REMARK    7  A    between atoms: C14_14  and  O15_15 
ROOT
ATOM      1  C1  SUB dUNIT       9.905   0.972 -54.657  0.00  0.00     0.019 A 
ATOM      2  C2  SUB dUNIT      10.833   1.838 -54.255  0.00  0.00     0.018 A 
ATOM      3  C3  SUB dUNIT      10.448   3.013 -53.472  0.00  0.00     0.039 A 
ATOM      4  C4  SUB dUNIT       9.169   3.217 -53.158  0.00  0.00     0.018 A 
ATOM      5  C5  SUB dUNIT       8.148   2.264 -53.599  0.00  0.00     0.019 A 
ATOM      6  C6  SUB dUNIT       8.499   1.196 -54.312  0.00  0.00     0.037 A 
ENDROOT
BRANCH   6   7
ATOM      7  C7  SUB dUNIT       7.482   0.246 -54.753  0.00  0.00     0.176 C 
ATOM      8  O9  SUB dUNIT       7.725  -0.966 -54.747  0.00  0.00    -0.646 OA
BRANCH   7   9
ATOM      9  O8  SUB dUNIT       6.240   0.704 -55.178  0.00  0.00    -0.773 OA
ATOM     10  H5  SUB dUNIT       5.775   1.231 -54.397  0.00  0.00     0.167 HD
ENDBRANCH   7   9
ENDBRANCH   6   7
BRANCH   3  11
ATOM     11  C10 SUB dUNIT      11.465   3.961 -53.033  0.00  0.00     0.293 C 
ATOM     12  O11 SUB dUNIT      11.970   3.847 -51.910  0.00  0.00    -0.259 OA
BRANCH  11  13
ATOM     13  O12 SUB dUNIT      11.865   4.991 -53.879  0.00  0.00    -0.315 OA
BRANCH  13  14
ATOM     14  C13 SUB dUNIT      13.237   4.815 -54.236  0.00  0.00     0.205 C 
BRANCH  14  15
ATOM     15  C14 SUB dUNIT      14.085   5.916 -53.577  0.00  0.00     0.191 C 
BRANCH  15  16
ATOM     16  O15 SUB dUNIT      15.450   5.493 -53.512  0.00  0.00    -0.399 OA
ATOM     17  H10 SUB dUNIT      15.517   4.612 -52.944  0.00  0.00     0.209 HD
ENDBRANCH  15  16
ENDBRANCH  14  15
ENDBRANCH  13  14
ENDBRANCH  11  13
ENDBRANCH   3  11
TORSDOF 7
ENDMDL
MODEL 6
REMARK DSDP RESULT:      -5.581178
REMARK  7 active torsions:
REMARK  status: ('A' for Active; 'I' for Inactive)
REMARK    1  A    between atoms: C3_3  and  C10_10 
REMARK    2  A    between atoms: C6_6  and  C7_7 
REMARK    3  A    between atoms: C7_7  and  O8_8 
REMARK    4  A    between atoms: C10_10  and  O12_12 
REMARK    5  A    between atoms: O12_12  and  C13_13 
REMARK    6  A    between atoms: C13_13  and  C14_14 
REMARK    7  A    between atoms: C14_14  and  O15_15 
ROOT
ATOM      1  C1  SUB dUNIT       9.551   1.156 -54.390  0.00  0.00     0.019 A 
ATOM      2  C2  SUB dUNIT      10.583   1.909 -54.016  0.00  0.00     0.018 A 
ATOM      3  C3  SUB dUNIT      10.359   3.278 -53.550  0.00  0.00     0.039 A 
ATOM      4  C4  SUB dUNIT       9.124   3.772 -53.498  0.00  0.00     0.018 A 
ATOM      5  C5  SUB dUNIT       7.988   2.944 -53.908  0.00  0.00     0.019 A 
ATOM      6  C6  SUB dUNIT       8.192   1.699 -54.333  0.00  0.00     0.037 A 
ENDROOT
BRANCH   6   7
ATOM      7  C7  SUB dUNIT       7.060   0.873 -54.742  0.00  0.00     0.176 C 
ATOM      8  O9  SUB dUNIT       6.401   1.180 -55.742  0.00  0.00    -0.646 OA
BRANCH   7   9
ATOM      9  O8  SUB dUNIT       6.724  -0.259 -54.008  0.00  0.00    -0.773 OA
ATOM     10  H5  SUB dUNIT       7.535  -0.925 -54.000  0.00  0.00     0.167 HD
ENDBRANCH   7   9
ENDBRANCH   6   7
BRANCH   3  11
ATOM     11  C10 SUB dUNIT      11.491   4.102 -53.141  0.00  0.00     0.293 C 
ATOM     12  O11 SUB dUNIT      12.038   3.901 -52.050  0.00  0.00    -0.259 OA
BRANCH  11  13
ATOM     13  O12 SUB dUNIT      11.952   5.113 -53.979  0.00  0.00    -0.315 OA
BRANCH  13  14
ATOM     14  C13 SUB dUNIT      13.118   4.666 -54.675  0.00  0.00     0.205 C 
BRANCH  14  15
ATOM     15  C14 SUB dUNIT      14.205   5.752 -54.604  0.00  0.00     0.191 C 
BRANCH  15  16
ATOM     16  O15 SUB dUNIT      15.010   5.547 -53.440  0.00  0.00    -0.399 OA
ATOM     17  H10 SUB dUNIT      14.406   5.600 -52.583  0.00  0.00     0.209 HD
ENDBRANCH  15  16
ENDBRANCH  14  15
ENDBRANCH  13  14
ENDBRANCH  11  13
ENDBRANCH   3  11
TORSDOF 7
ENDMDL
MODEL 7
REMARK DSDP RESULT:      -5.570498
REMARK  7 active torsions:
REMARK  status: ('A' for Active; 'I' for Inactive)
REMARK    1  A    between atoms: C3_3  and  C10_10 
REMARK    2  A    between atoms: C6_6  and  C7_7 
REMARK    3  A    between atoms: C7_7  and  O8_8 
REMARK    4  A    between atoms: C10_10  and  O12_12 
REMARK    5  A    between atoms: O12_12  and  C13_13 
REMARK    6  A    between atoms: C13_13  and  C14_14 
REMARK    7  A    between atoms: C14_14  and  O15_15 
ROOT
ATOM      1  C1  SUB dUNIT       9.583   1.124 -54.434  0.00  0.00     0.019 A 
ATOM      2  C2  SUB dUNIT      10.607   1.890 -54.063  0.00  0.00     0.018 A 
ATOM      3  C3  SUB dUNIT      10.363   3.236 -53.544  0.00  0.00     0.039 A 
ATOM      4  C4  SUB dUNIT       9.118   3.697 -53.441  0.00  0.00     0.018 A 
ATOM      5  C5  SUB dUNIT       7.991   2.855 -53.848  0.00  0.00     0.019 A 
ATOM      6  C6  SUB dUNIT       8.213   1.631 -54.320  0.00  0.00     0.037 A 
ENDROOT
BRANCH   6   7
ATOM      7  C7  SUB dUNIT       7.090   0.790 -54.727  0.00  0.00     0.176 C 
ATOM      8  O9  SUB dUNIT       7.263  -0.418 -54.923  0.00  0.00    -0.646 OA
BRANCH   7   9
ATOM      9  O8  SUB dUNIT       5.828   1.349 -54.892  0.00  0.00    -0.773 OA
ATOM     10  H5  SUB dUNIT       5.511   1.774 -53.986  0.00  0.00     0.167 HD
ENDBRANCH   7   9
ENDBRANCH   6   7
BRANCH   3  11
ATOM     11  C10 SUB dUNIT      11.485   4.074 -53.139  0.00  0.00     0.293 C 
ATOM     12  O11 SUB dUNIT      12.027   3.891 -52.042  0.00  0.00    -0.259 OA
BRANCH  11  13
ATOM     13  O12 SUB dUNIT      11.944   5.078 -53.986  0.00  0.00    -0.315 OA
BRANCH  13  14
ATOM     14  C13 SUB dUNIT      13.197   4.692 -54.555  0.00  0.00     0.205 C 
BRANCH  14  15
ATOM     15  C14 SUB dUNIT      14.201   5.850 -54.420  0.00  0.00     0.191 C 
BRANCH  15  16
ATOM     16  O15 SUB dUNIT      15.197   5.507 -53.453  0.00  0.00    -0.399 OA
ATOM     17  H10 SUB dUNIT      14.738   5.331 -52.525  0.00  0.00     0.209 HD
ENDBRANCH  15  16
ENDBRANCH  14  15
ENDBRANCH  13  14
ENDBRANCH  11  13
ENDBRANCH   3  11
TORSDOF 7
ENDMDL
MODEL 8
REMARK DSDP RESULT:      -5.556090
REMARK  7 active torsions:
REMARK  status: ('A' for Active; 'I' for Inactive)
REMARK    1  A    between atoms: C3_3  and  C10_10 
REMARK    2  A    between atoms: C6_6  and  C7_7 
REMARK    3  A    between atoms: C7_7  and  O8_8 
REMARK    4  A    between atoms: C10_10  and  O12_12 
REMARK    5  A    between atoms: O12_12  and  C13_13 
REMARK    6  A    between atoms: C13_13  and  C14_14 
REMARK    7  A    between atoms: C14_14  and  O15_15 
ROOT
ATOM      1  C1  SUB dUNIT       9.383   1.207 -54.366  0.00  0.00     0.019 A 
ATOM      2  C2  SUB dUNIT      10.435   1.911 -53.954  0.00  0.00     0.018 A 
ATOM      3  C3  SUB dUNIT      10.267   3.307 -53.546  0.00  0.00     0.039 A 
ATOM      4  C4  SUB dUNIT       9.063   3.874 -53.586  0.00  0.00     0.018 A 
ATOM      5  C5  SUB dUNIT       7.905   3.100 -54.039  0.00  0.00     0.019 A 
ATOM      6  C6  SUB dUNIT       8.058   1.831 -54.410  0.00  0.00     0.037 A 
ENDROOT
BRANCH   6   7
ATOM      7  C7  SUB dUNIT       6.905   1.058 -54.862  0.00  0.00     0.176 C 
ATOM      8  O9  SUB dUNIT       5.790   1.590 -54.922  0.00  0.00    -0.646 OA
BRANCH   7   9
ATOM      9  O8  SUB dUNIT       7.060  -0.275 -55.224  0.00  0.00    -0.773 OA
ATOM     10  H5  SUB dUNIT       7.740  -0.345 -56.021  0.00  0.00     0.167 HD
ENDBRANCH   7   9
ENDBRANCH   6   7
BRANCH   3  11
ATOM     11  C10 SUB dUNIT      11.420   4.077 -53.095  0.00  0.00     0.293 C 
ATOM     12  O11 SUB dUNIT      11.945   3.821 -52.006  0.00  0.00    -0.259 OA
BRANCH  11  13
ATOM     13  O12 SUB dUNIT      11.927   5.099 -53.892  0.00  0.00    -0.315 OA
BRANCH  13  14
ATOM     14  C13 SUB dUNIT      13.259   4.778 -54.298  0.00  0.00     0.205 C 
BRANCH  14  15
ATOM     15  C14 SUB dUNIT      14.238   5.805 -53.703  0.00  0.00     0.191 C 
BRANCH  15  16
ATOM     16  O15 SUB dUNIT      15.530   5.628 -54.290  0.00  0.00    -0.399 OA
ATOM     17  H10 SUB dUNIT      15.876   4.658 -54.089  0.00  0.00     0.209 HD
ENDBRANCH  15  16
ENDBRANCH  14  15
ENDBRANCH  13  14
ENDBRANCH  11  13
ENDBRANCH   3  11
TORSDOF 7
ENDMDL
MODEL 9
REMARK DSDP RESULT:      -5.552818
REMARK  7 active torsions:
REMARK  status: ('A' for Active; 'I' for Inactive)
REMARK    1  A    between atoms: C3_3  and  C10_10 
REMARK    2  A    between atoms: C6_6  and  C7_7 
REMARK    3  A    between atoms: C7_7  and  O8_8 
REMARK    4  A    between atoms: C10_10  and  O12_12 
REMARK    5  A    between atoms: O12_12  and  C13_13 
REMARK    6  A    between atoms: C13_13  and  C14_14 
REMARK    7  A    between atoms: C14_14  and  O15_15 
ROOT
ATOM      1  C1  SUB dUNIT       9.616   1.083 -54.465  0.00  0.00     0.019 A 
ATOM      2  C2  SUB dUNIT      10.620   1.856 -54.056  0.00  0.00     0.018 A 
ATOM      3  C3  SUB dUNIT      10.344   3.186 -53.511  0.00  0.00     0.039 A 
ATOM      4  C4  SUB dUNIT       9.090   3.625 -53.424  0.00  0.00     0.018 A 
ATOM      5  C5  SUB dUNIT       7.986   2.775 -53.874  0.00  0.00     0.019 A 
ATOM      6  C6  SUB dUNIT       8.236   1.565 -54.369  0.00  0.00     0.037 A 
ENDROOT
BRANCH   6   7
ATOM      7  C7  SUB dUNIT       7.136   0.717 -54.818  0.00  0.00     0.176 C 
ATOM      8  O9  SUB dUNIT       6.707  -0.178 -54.081  0.00  0.00    -0.646 OA
BRANCH   7   9
ATOM      9  O8  SUB dUNIT       6.571   0.917 -56.072  0.00  0.00    -0.773 OA
ATOM     10  H5  SUB dUNIT       6.181   1.890 -56.130  0.00  0.00     0.167 HD
ENDBRANCH   7   9
ENDBRANCH   6   7
BRANCH   3  11
ATOM     11  C10 SUB dUNIT      11.445   4.032 -53.064  0.00  0.00     0.293 C 
ATOM     12  O11 SUB dUNIT      11.964   3.834 -51.959  0.00  0.00    -0.259 OA
BRANCH  11  13
ATOM     13  O12 SUB dUNIT      11.907   5.059 -53.880  0.00  0.00    -0.315 OA
BRANCH  13  14
ATOM     14  C13 SUB dUNIT      13.238   4.768 -54.313  0.00  0.00     0.205 C 
BRANCH  14  15
ATOM     15  C14 SUB dUNIT      14.209   5.799 -53.712  0.00  0.00     0.191 C 
BRANCH  15  16
ATOM     16  O15 SUB dUNIT      15.507   5.623 -54.287  0.00  0.00    -0.399 OA
ATOM     17  H10 SUB dUNIT      15.853   4.653 -54.079  0.00  0.00     0.209 HD
ENDBRANCH  15  16
ENDBRANCH  14  15
ENDBRANCH  13  14
ENDBRANCH  11  13
ENDBRANCH   3  11
TORSDOF 7
ENDMDL
